case_ieee_rts_73.m
function mpc = case_ieee_rts_73									
%% MATPOWER Case Format : Version 2																						
mpc.version = '2';																						
																						
%%-----  Power Flow Data  -----%%																						
%% system MVA base																						
mpc.baseMVA = 100;																						
																						
%% bus data																						
%	bus_i	type	Pd	Qd	Gs	Bs	area	Vm	Va	baseKV	zone	Vmax	Vmin									
mpc.bus = [																						
	1	2	108	22	0	0	1	1.04777	-7.74152	138	11	1.05	0.95;									
	2	2	97	20	0	0	1	1.04783	-7.81784	138	12	1.05	0.95;									
	3	1	180	37	0	0	1	1.01085	-7.2109	138	11	1.05	0.95;									
	4	1	74	15	0	0	1	1.01765	-10.56614	138	11	1.05	0.95;									
	5	1	71	14	0	0	1	1.03568	-10.70887	138	11	1.05	0.95;									
	6	1	136	28	0	-100	1	1.03242	-13.27944	138	12	1.05	0.95;									
	7	2	125	25	0	0	1	1.03745	-11.27673	138	12	1.05	0.95;									
	8	1	171	35	0	0	1	1.01024	-13.74967	138	12	1.05	0.95;									
	9	1	175	36	0	0	1	1.0261	-8.81524	138	13	1.05	0.95;									
	10	1	195	40	0	0	1	1.05	-10.62063	138	13	1.05	0.95;									
	11	1	0	0	0	0	1	1.02764	-3.91674	230	13	1.05	0.95;									
	12	1	0	0	0	0	1	1.02024	-2.42424	230	13	1.05	0.95;									
	13	3	265	54	0	0	1	1.03943	0	230	14	1.05	0.95;									
	14	2	194	39	0	0	1	1.04401	-1.73056	230	16	1.05	0.95;									
	15	2	317	64	0	0	1	1.04335	7.9597	230	16	1.05	0.95;									
	16	2	100	20	0	0	1	1.04565	7.56929	230	16	1.05	0.95;									
	17	1	0	0	0	0	1	1.04783	11.43417	230	17	1.05	0.95;									
	18	2	333	68	0	0	1	1.05	12.52457	230	17	1.05	0.95;									
	19	1	181	37	0	0	1	1.03962	6.65777	230	15	1.05	0.95;									
	20	1	128	26	0	0	1	1.04399	7.7406	230	15	1.05	0.95;									
	21	2	0	0	0	0	1	1.05	13.08653	230	17	1.05	0.95;									
	22	2	0	0	0	0	1	1.05	18.94978	230	17	1.05	0.95;									
	23	2	0	0	0	0	1	1.05	9.05617	230	15	1.05	0.95;									
	24	1	0	0	0	0	1	1.01155	2.38339	230	16	1.05	0.95;									
	25	2	108	22	0	0	2	1.04841	-10.68973	138	21	1.05	0.95;									
	26	2	97	20	0	0	2	1.04844	-10.75906	138	22	1.05	0.95;									
	27	1	180	37	0	0	2	1.01886	-10.47453	138	21	1.05	0.95;									
	28	1	74	15	0	0	2	1.0189	-13.48479	138	21	1.05	0.95;									
	29	1	71	14	0	0	2	1.03603	-13.61187	138	21	1.05	0.95;									
	30	1	136	28	0	-100	2	1.03259	-16.15672	138	22	1.05	0.95;									
	31	2	125	25	0	0	2	1.03973	-13.46606	138	22	1.05	0.95;									
	32	1	171	35	0	0	2	1.01203	-16.22359	138	22	1.05	0.95;									
	33	1	175	36	0	0	2	1.02781	-11.72409	138	23	1.05	0.95;									
	34	1	195	40	0	0	2	1.05	-13.47986	138	23	1.05	0.95;									
	35	1	0	0	0	0	2	1.02735	-6.93336	230	23	1.05	0.95;									
	36	1	0	0	0	0	2	1.01921	-5.25334	230	23	1.05	0.95;									
	37	2	265	54	0	0	2	1.03752	-3.2151	230	24	1.05	0.95;									
	38	2	194	39	0	0	2	1.04335	-4.68519	230	26	1.05	0.95;									
	39	2	317	64	0	0	2	1.04327	4.63351	230	26	1.05	0.95;									
	40	2	100	20	0	0	2	1.04556	4.70009	230	26	1.05	0.95;									
	41	1	0	0	0	0	2	1.04847	8.81839	230	27	1.05	0.95;									
	42	2	333	68	0	0	2	1.05	9.99473	230	27	1.05	0.95;									
	43	1	181	37	0	0	2	1.03946	4.21233	230	25	1.05	0.95;									
	44	1	128	26	0	0	2	1.0438	5.66449	230	25	1.05	0.95;									
	45	2	0	0	0	0	2	1.05	10.63209	230	27	1.05	0.95;									
	46	2	0	0	0	0	2	1.05	16.43203	230	27	1.05	0.95;									
	47	2	0	0	0	0	2	1.05	7.18151	230	25	1.05	0.95;									
	48	1	0	0	0	0	2	1.01456	-0.96005	230	26	1.05	0.95;									
	49	2	108	22	0	0	3	1.0486	-9.34821	138	31	1.05	0.95;									
	50	2	97	20	0	0	3	1.04864	-9.431	138	32	1.05	0.95;									
	51	1	180	37	0	0	3	1.01045	-8.57689	138	31	1.05	0.95;									
	52	1	74	15	0	0	3	1.01785	-12.18784	138	31	1.05	0.95;									
	53	1	71	14	0	0	3	1.03609	-12.35005	138	31	1.05	0.95;									
	54	1	136	28	0	-100	3	1.0326	-14.94205	138	32	1.05	0.95;									
	55	2	125	25	0	0	3	1.03804	-12.54795	138	32	1.05	0.95;									
	56	1	171	35	0	0	3	1.01056	-15.18287	138	32	1.05	0.95;									
	57	1	175	36	0	0	3	1.02579	-10.44617	138	33	1.05	0.95;									
	58	1	195	40	0	0	3	1.05	-12.30117	138	33	1.05	0.95;									
	59	1	0	0	0	0	3	1.0283	-5.74069	230	33	1.05	0.95;									
	60	1	0	0	0	0	3	1.019	-4.14604	230	33	1.05	0.95;									
	61	2	265	54	0	0	3	1.03802	-2.41513	230	34	1.05	0.95;									
	62	2	194	39	0	0	3	1.04631	-3.20793	230	36	1.05	0.95;									
	63	2	317	64	0	0	3	1.043	7.05088	230	36	1.05	0.95;									
	64	2	100	20	0	0	3	1.04558	6.59875	230	36	1.05	0.95;									
	65	1	0	0	0	0	3	1.04785	10.34418	230	37	1.05	0.95;									
	66	2	333	68	0	0	3	1.05	11.34262	230	37	1.05	0.95;									
	67	1	181	37	0	0	3	1.03953	5.91539	230	35	1.05	0.95;									
	68	1	128	26	0	0	3	1.04389	7.19709	230	35	1.05	0.95;									
	69	2	0	0	0	0	3	1.05	12.34122	230	37	1.05	0.95;									
	70	2	0	0	0	0	3	1.05	18.06914	230	37	1.05	0.95;									
	71	2	0	0	0	0	3	1.05	8.62112	230	35	1.05	0.95;									
	72	1	0	0	0	0	3	1.01046	1.30606	230	36	1.05	0.95;									
	73	1	0	0	0	0	3	1.04986	8.99332	230	35	1.05	0.95;									
];																						
																						
%% generator data																						
%	bus	Pg	Qg	Qmax	Qmin	Vg	mBase	status	Pmax	Pmin	Pc1	Pc2	Qc1min	Qc1max	Qc2min	Qc2max	ramp_agc	ramp_10	ramp_30	ramp_q	apf	
mpc.gen = [																						
	1	10	0	10	0	1.035	100	1	20	10	0	0	0	0	0	0	3	3	3	3	0;	% U20
	1	10	0	10	0	1.035	100	1	20	10	0	0	0	0	0	0	3	3	3	3	0;	% U20
	1	76	14.1	30	-25	1.035	100	1	76	15.2	0	0	0	0	0	0	2	2	2	2	0;	% U76
	1	76	14.1	30	-25	1.035	100	1	76	15.2	0	0	0	0	0	0	2	2	2	2	0;	% U76
	2	10	0	10	0	1.035	100	1	20	10	0	0	0	0	0	0	3	3	3	3	0;	% U20
	2	10	0	10	0	1.035	100	1	20	10	0	0	0	0	0	0	3	3	3	3	0;	% U20
	2	76	7	30	-25	1.035	100	1	76	15.2	0	0	0	0	0	0	2	2	2	2	0;	% U76
	2	76	7	30	-25	1.035	100	1	76	15.2	0	0	0	0	0	0	2	2	2	2	0;	% U76
	7	80	17.2	60	0	1.025	100	1	100	25	0	0	0	0	0	0	7	7	7	7	0;	% U100
	7	80	17.2	60	0	1.025	100	1	100	25	0	0	0	0	0	0	7	7	7	7	0;	% U100
	7	80	17.2	60	0	1.025	100	1	100	25	0	0	0	0	0	0	7	7	7	7	0;	% U100
	13	95.1	40.7	80	0	1.020	100	1	197	69	0	0	0	0	0	0	3	3	3	3	0;	% U197
	13	95.1	40.7	80	0	1.020	100	1	197	69	0	0	0	0	0	0	3	3	3	3	0;	% U197
	13	95.1	40.7	80	0	1.020	100	1	197	69	0	0	0	0	0	0	3	3	3	3	0;	% U197
	14	0	35.3	200	-50	0.98	100	1	0	0	0	0	0	0	0	0	0	0	0	0	0;	% SynCond
	15	12	0	6	0	1.014	100	1	12	2.4	0	0	0	0	0	0	1	1	1	1	0;	% U12
	15	12	0	6	0	1.014	100	1	12	2.4	0	0	0	0	0	0	1	1	1	1	0;	% U12
	15	12	0	6	0	1.014	100	1	12	2.4	0	0	0	0	0	0	1	1	1	1	0;	% U12
	15	12	0	6	0	1.014	100	1	12	2.4	0	0	0	0	0	0	1	1	1	1	0;	% U12
	15	12	0	6	0	1.014	100	1	12	2.4	0	0	0	0	0	0	1	1	1	1	0;	% U12
	15	155	0.05	80	-50	1.014	100	1	155	54.3	0	0	0	0	0	0	3	3	3	3	0;	% U155
	16	155	25.22	80	-50	1.017	100	1	155	54.3	0	0	0	0	0	0	3	3	3	3	0;	% U155
	18	400	137.4	200	-50	1.050	100	1	400	100	0	0	0	0	0	0	20	20	20	20	0;	% U400
	21	400	108.2	200	-50	1.050	100	1	400	100	0	0	0	0	0	0	20	20	20	20	0;	% U400
	22	50	-4.96	16	-10	1.050	100	1	50	10	0	0	0	0	0	0	50	50	50	50	0;	% U50
	22	50	-4.96	16	-10	1.050	100	1	50	10	0	0	0	0	0	0	50	50	50	50	0;	% U50
	22	50	-4.96	16	-10	1.050	100	1	50	10	0	0	0	0	0	0	50	50	50	50	0;	% U50
	22	50	-4.96	16	-10	1.050	100	1	50	10	0	0	0	0	0	0	50	50	50	50	0;	% U50
	22	50	-4.96	16	-10	1.050	100	1	50	10	0	0	0	0	0	0	50	50	50	50	0;	% U50
	22	50	-4.96	16	-10	1.050	100	1	50	10	0	0	0	0	0	0	50	50	50	50	0;	% U50
	23	155	31.79	80	-50	1.050	100	1	155	54.3	0	0	0	0	0	0	3	3	3	3	0;	% U155
	23	155	31.79	80	-50	1.050	100	1	155	54.3	0	0	0	0	0	0	3	3	3	3	0;	% U155
	23	350	71.78	150	-25	1.050	100	1	350	140	0	0	0	0	0	0	4	4	4	4	0;	% U350
	25	10	0	10	0	1.035	100	1	20	10	0	0	0	0	0	0	3	3	3	3	0;	% U20
	25	10	0	10	0	1.035	100	1	20	10	0	0	0	0	0	0	3	3	3	3	0;	% U20
	25	76	14.1	30	-25	1.035	100	1	76	15.2	0	0	0	0	0	0	2	2	2	2	0;	% U76
	25	76	14.1	30	-25	1.035	100	1	76	15.2	0	0	0	0	0	0	2	2	2	2	0;	% U76
	26	10	0	10	0	1.035	100	1	20	10	0	0	0	0	0	0	3	3	3	3	0;	% U20
	26	10	0	10	0	1.035	100	1	20	10	0	0	0	0	0	0	3	3	3	3	0;	% U20
	26	76	7	30	-25	1.035	100	1	76	15.2	0	0	0	0	0	0	2	2	2	2	0;	% U76
	26	76	7	30	-25	1.035	100	1	76	15.2	0	0	0	0	0	0	2	2	2	2	0;	% U76
	31	80	17.2	60	0	1.025	100	1	100	25	0	0	0	0	0	0	7	7	7	7	0;	% U100
	31	80	17.2	60	0	1.025	100	1	100	25	0	0	0	0	0	0	7	7	7	7	0;	% U100
	31	80	17.2	60	0	1.025	100	1	100	25	0	0	0	0	0	0	7	7	7	7	0;	% U100
	37	95.1	40.7	80	0	1.020	100	1	197	69	0	0	0	0	0	0	3	3	3	3	0;	% U197
	37	95.1	40.7	80	0	1.020	100	1	197	69	0	0	0	0	0	0	3	3	3	3	0;	% U197
	37	95.1	40.7	80	0	1.020	100	1	197	69	0	0	0	0	0	0	3	3	3	3	0;	% U197
	38	0	35.3	200	-50	0.98	100	1	0	0	0	0	0	0	0	0	0	0	0	0	0;	% SynCond
	39	12	0	6	0	1.014	100	1	12	2.4	0	0	0	0	0	0	1	1	1	1	0;	% U12
	39	12	0	6	0	1.014	100	1	12	2.4	0	0	0	0	0	0	1	1	1	1	0;	% U12
	39	12	0	6	0	1.014	100	1	12	2.4	0	0	0	0	0	0	1	1	1	1	0;	% U12
	39	12	0	6	0	1.014	100	1	12	2.4	0	0	0	0	0	0	1	1	1	1	0;	% U12
	39	12	0	6	0	1.014	100	1	12	2.4	0	0	0	0	0	0	1	1	1	1	0;	% U12
	39	155	0.048	80	-50	1.014	100	1	155	54.3	0	0	0	0	0	0	3	3	3	3	0;	% U155
	40	155	25.22	80	-50	1.017	100	1	155	54.3	0	0	0	0	0	0	3	3	3	3	0;	% U155
	42	400	137.4	200	-50	1.050	100	1	400	100	0	0	0	0	0	0	20	20	20	20	0;	% U400
	45	400	108.2	200	-50	1.050	100	1	400	100	0	0	0	0	0	0	20	20	20	20	0;	% U400
	46	50	-4.96	16	-10	1.050	100	1	50	10	0	0	0	0	0	0	50	50	50	50	0;	% U50
	46	50	-4.96	16	-10	1.050	100	1	50	10	0	0	0	0	0	0	50	50	50	50	0;	% U50
	46	50	-4.96	16	-10	1.050	100	1	50	10	0	0	0	0	0	0	50	50	50	50	0;	% U50
	46	50	-4.96	16	-10	1.050	100	1	50	10	0	0	0	0	0	0	50	50	50	50	0;	% U50
	46	50	-4.96	16	-10	1.050	100	1	50	10	0	0	0	0	0	0	50	50	50	50	0;	% U50
	46	50	-4.96	16	-10	1.050	100	1	50	10	0	0	0	0	0	0	50	50	50	50	0;	% U50
	47	155	31.79	80	-50	1.050	100	1	155	54.3	0	0	0	0	0	0	3	3	3	3	0;	% U155
	47	155	31.79	80	-50	1.050	100	1	155	54.3	0	0	0	0	0	0	3	3	3	3	0;	% U155
	47	350	71.78	150	-25	1.050	100	1	350	140	0	0	0	0	0	0	4	4	4	4	0;	% U350
	49	10	0	10	0	1.035	100	1	20	10	0	0	0	0	0	0	3	3	3	3	0;	% U20
	49	10	0	10	0	1.035	100	1	20	10	0	0	0	0	0	0	3	3	3	3	0;	% U20
	49	76	14.1	30	-25	1.035	100	1	76	15.2	0	0	0	0	0	0	2	2	2	2	0;	% U76
	49	76	14.1	30	-25	1.035	100	1	76	15.2	0	0	0	0	0	0	2	2	2	2	0;	% U76
	50	10	0	10	0	1.035	100	1	20	10	0	0	0	0	0	0	3	3	3	3	0;	% U20
	50	10	0	10	0	1.035	100	1	20	10	0	0	0	0	0	0	3	3	3	3	0;	% U20
	50	76	7	30	-25	1.035	100	1	76	15.2	0	0	0	0	0	0	2	2	2	2	0;	% U76
	50	76	7	30	-25	1.035	100	1	76	15.2	0	0	0	0	0	0	2	2	2	2	0;	% U76
	55	80	17.2	60	0	1.025	100	1	100	25	0	0	0	0	0	0	7	7	7	7	0;	% U100
	55	80	17.2	60	0	1.025	100	1	100	25	0	0	0	0	0	0	7	7	7	7	0;	% U100
	55	80	17.2	60	0	1.025	100	1	100	25	0	0	0	0	0	0	7	7	7	7	0;	% U100
	61	95.1	40.7	80	0	1.020	100	1	197	69	0	0	0	0	0	0	3	3	3	3	0;	% U197
	61	95.1	40.7	80	0	1.020	100	1	197	69	0	0	0	0	0	0	3	3	3	3	0;	% U197
	61	95.1	40.7	80	0	1.020	100	1	197	69	0	0	0	0	0	0	3	3	3	3	0;	% U197
	62	0	35.3	200	-50	0.98	100	1	0	0	0	0	0	0	0	0	0	0	0	0	0;	% SynCond
	63	12	0	6	0	1.014	100	1	12	2.4	0	0	0	0	0	0	1	1	1	1	0;	% U12
	63	12	0	6	0	1.014	100	1	12	2.4	0	0	0	0	0	0	1	1	1	1	0;	% U12
	63	12	0	6	0	1.014	100	1	12	2.4	0	0	0	0	0	0	1	1	1	1	0;	% U12
	63	12	0	6	0	1.014	100	1	12	2.4	0	0	0	0	0	0	1	1	1	1	0;	% U12
	63	12	0	6	0	1.014	100	1	12	2.4	0	0	0	0	0	0	1	1	1	1	0;	% U12
	63	155	0.048	80	-50	1.014	100	1	155	54.3	0	0	0	0	0	0	3	3	3	3	0;	% U155
	64	155	25.22	80	-50	1.017	100	1	155	54.3	0	0	0	0	0	0	3	3	3	3	0;	% U155
	66	400	137.4	200	-50	1.050	100	1	400	100	0	0	0	0	0	0	20	20	20	20	0;	% U400
	69	400	108.2	200	-50	1.050	100	1	400	100	0	0	0	0	0	0	20	20	20	20	0;	% U400
	70	50	-4.96	16	-10	1.050	100	1	50	10	0	0	0	0	0	0	50	50	50	50	0;	% U50
	70	50	-4.96	16	-10	1.050	100	1	50	10	0	0	0	0	0	0	50	50	50	50	0;	% U50
	70	50	-4.96	16	-10	1.050	100	1	50	10	0	0	0	0	0	0	50	50	50	50	0;	% U50
	70	50	-4.96	16	-10	1.050	100	1	50	10	0	0	0	0	0	0	50	50	50	50	0;	% U50
	70	50	-4.96	16	-10	1.050	100	1	50	10	0	0	0	0	0	0	50	50	50	50	0;	% U50
	70	50	-4.96	16	-10	1.050	100	1	50	10	0	0	0	0	0	0	50	50	50	50	0;	% U50
	71	155	31.79	80	-50	1.050	100	1	155	54.3	0	0	0	0	0	0	3	3	3	3	0;	% U155
	71	155	31.79	80	-50	1.050	100	1	155	54.3	0	0	0	0	0	0	3	3	3	3	0;	% U155
	71	350	71.78	150	-25	1.050	100	1	350	140	0	0	0	0	0	0	4	4	4	4	0;	% U350
];																						
																						
%% branch data													
%	fbus	tbus	r	x	b	rateA	rateB	rateC	ratio	angle	status	angmin	angmax
mpc.branch = [													
	1	2	0.003	0.014	0.461	175	193	200	0	0	1	-180	180;
	1	3	0.055	0.211	0.057	175	208	220	0	0	1	-180	180;
	1	5	0.022	0.085	0.023	175	208	220	0	0	1	-180	180;
	2	4	0.033	0.127	0.034	175	208	220	0	0	1	-180	180;
	2	6	0.05	0.192	0.052	175	208	220	0	0	1	-180	180;
	3	9	0.031	0.119	0.032	175	208	220	0	0	1	-180	180;
	3	24	0.002	0.084	0	400	510	600	1.015	0	1	-180	180;
	4	9	0.027	0.104	0.028	175	208	220	0	0	1	-180	180;
	5	10	0.023	0.088	0.024	175	208	220	0	0	1	-180	180;
	6	10	0.014	0.061	2.459	175	193	200	0	0	1	-180	180;
	7	8	0.016	0.061	0.017	175	208	220	0	0	1	-180	180;
	7	27	0.042	0.161	0.044	175	208	220	0	0	1	-180	180;
	8	9	0.043	0.165	0.045	175	208	220	0	0	1	-180	180;
	8	10	0.043	0.165	0.045	175	208	220	0	0	1	-180	180;
	9	11	0.002	0.084	0	400	510	600	1.03	0	1	-180	180;
	9	12	0.002	0.084	0	400	510	600	1.03	0	1	-180	180;
	10	11	0.002	0.084	0	400	510	600	1.015	0	1	-180	180;
	10	12	0.002	0.084	0	400	510	600	1.015	0	1	-180	180;
	11	13	0.006	0.048	0.1	500	600	625	0	0	1	-180	180;
	11	14	0.005	0.042	0.088	500	600	625	0	0	1	-180	180;
	12	13	0.006	0.048	0.1	500	600	625	0	0	1	-180	180;
	12	23	0.012	0.097	0.203	500	600	625	0	0	1	-180	180;
	13	23	0.011	0.087	0.182	500	600	625	0	0	1	-180	180;
	13	39	0.01	0.075	0.158	500	600	625	0	0	1	-180	180;
	14	16	0.005	0.059	0.082	500	600	625	0	0	1	-180	180;
	15	16	0.002	0.017	0.036	500	600	625	0	0	1	-180	180;
	15	21	0.006	0.049	0.103	500	600	625	0	0	1	-180	180;
	15	21	0.006	0.049	0.103	500	600	625	0	0	1	-180	180;
	15	24	0.007	0.052	0.109	500	600	625	0	0	1	-180	180;
	16	17	0.003	0.026	0.055	500	600	625	0	0	1	-180	180;
	16	19	0.003	0.023	0.049	500	600	625	0	0	1	-180	180;
	17	18	0.002	0.014	0.03	500	600	625	0	0	1	-180	180;
	17	22	0.014	0.105	0.221	500	600	625	0	0	1	-180	180;
	18	21	0.003	0.026	0.055	500	600	625	0	0	1	-180	180;
	18	21	0.003	0.026	0.055	500	600	625	0	0	1	-180	180;
	19	20	0.005	0.04	0.083	500	600	625	0	0	1	-180	180;
	19	20	0.005	0.04	0.083	500	600	625	0	0	1	-180	180;
	20	23	0.003	0.022	0.046	500	600	625	0	0	1	-180	180;
	20	23	0.003	0.022	0.046	500	600	625	0	0	1	-180	180;
	21	22	0.009	0.068	0.142	500	600	625	0	0	1	-180	180;
	21	73	0.012	0.097	0.203	500	600	625	0	0	1	-180	180;
	23	41	0.01	0.074	0.155	500	600	625	0	0	1	-180	180;
	25	26	0.003	0.014	0.461	175	193	200	0	0	1	-180	180;
	25	27	0.055	0.211	0.057	175	208	220	0	0	1	-180	180;
	25	29	0.022	0.085	0.023	175	208	220	0	0	1	-180	180;
	26	28	0.033	0.127	0.034	175	208	220	0	0	1	-180	180;
	26	30	0.05	0.192	0.052	175	208	220	0	0	1	-180	180;
	27	33	0.031	0.119	0.032	175	208	220	0	0	1	-180	180;
	27	48	0.002	0.084	0	400	510	600	1.015	0	1	-180	180;
	28	33	0.027	0.104	0.028	175	208	220	0	0	1	-180	180;
	29	34	0.023	0.088	0.024	175	208	220	0	0	1	-180	180;
	30	34	0.014	0.061	2.459	175	193	200	0	0	1	-180	180;
	31	32	0.016	0.061	0.017	175	208	220	0	0	1	-180	180;
	32	33	0.043	0.165	0.045	175	208	220	0	0	1	-180	180;
	32	34	0.043	0.165	0.045	175	208	220	0	0	1	-180	180;
	33	35	0.002	0.084	0	400	510	600	1.03	0	1	-180	180;
	33	36	0.002	0.084	0	400	510	600	1.03	0	1	-180	180;
	34	35	0.002	0.084	0	400	510	600	1.015	0	1	-180	180;
	34	36	0.002	0.084	0	400	510	600	1.015	0	1	-180	180;
	35	37	0.006	0.048	0.1	500	600	625	0	0	1	-180	180;
	35	38	0.005	0.042	0.088	500	600	625	0	0	1	-180	180;
	36	37	0.006	0.048	0.1	500	600	625	0	0	1	-180	180;
	36	47	0.012	0.097	0.203	500	600	625	0	0	1	-180	180;
	37	47	0.011	0.087	0.182	500	600	625	0	0	1	-180	180;
	38	40	0.005	0.059	0.082	500	600	625	0	0	1	-180	180;
	39	40	0.002	0.017	0.036	500	600	625	0	0	1	-180	180;
	39	45	0.006	0.049	0.103	500	600	625	0	0	1	-180	180;
	39	45	0.006	0.049	0.103	500	600	625	0	0	1	-180	180;
	39	48	0.007	0.052	0.109	500	600	625	0	0	1	-180	180;
	40	41	0.003	0.026	0.055	500	600	625	0	0	1	-180	180;
	40	43	0.003	0.023	0.049	500	600	625	0	0	1	-180	180;
	41	42	0.002	0.014	0.03	500	600	625	0	0	1	-180	180;
	41	46	0.014	0.105	0.221	500	600	625	0	0	1	-180	180;
	42	45	0.003	0.026	0.055	500	600	625	0	0	1	-180	180;
	42	45	0.003	0.026	0.055	500	600	625	0	0	1	-180	180;
	43	44	0.005	0.04	0.083	500	600	625	0	0	1	-180	180;
	43	44	0.005	0.04	0.083	500	600	625	0	0	1	-180	180;
	44	47	0.003	0.022	0.046	500	600	625	0	0	1	-180	180;
	44	47	0.003	0.022	0.046	500	600	625	0	0	1	-180	180;
	45	46	0.009	0.068	0.142	500	600	625	0	0	1	-180	180;
	47	66	0.013	0.104	0.218	500	600	625	0	0	1	-180	180;
	49	50	0.003	0.014	0.461	175	193	200	0	0	1	-180	180;
	49	51	0.055	0.211	0.057	175	208	220	0	0	1	-180	180;
	49	53	0.022	0.085	0.023	175	208	220	0	0	1	-180	180;
	50	52	0.033	0.127	0.034	175	208	220	0	0	1	-180	180;
	50	54	0.05	0.192	0.052	175	208	220	0	0	1	-180	180;
	51	57	0.031	0.119	0.032	175	208	220	0	0	1	-180	180;
	51	72	0.002	0.084	0	400	510	600	1.015	0	1	-180	180;
	52	57	0.027	0.104	0.028	175	208	220	0	0	1	-180	180;
	53	58	0.023	0.088	0.024	175	208	220	0	0	1	-180	180;
	54	58	0.014	0.061	2.459	175	193	200	0	0	1	-180	180;
	55	56	0.016	0.061	0.017	175	208	220	0	0	1	-180	180;
	56	57	0.043	0.165	0.045	175	208	220	0	0	1	-180	180;
	56	58	0.043	0.165	0.045	175	208	220	0	0	1	-180	180;
	57	59	0.002	0.084	0	400	510	600	1.03	0	1	-180	180;
	57	60	0.002	0.084	0	400	510	600	1.03	0	1	-180	180;
	58	59	0.002	0.084	0	400	510	600	1.015	0	1	-180	180;
	58	60	0.002	0.084	0	400	510	600	1.015	0	1	-180	180;
	59	61	0.006	0.048	0.1	500	600	625	0	0	1	-180	180;
	59	62	0.005	0.042	0.088	500	600	625	0	0	1	-180	180;
	60	61	0.006	0.048	0.1	500	600	625	0	0	1	-180	180;
	60	71	0.012	0.097	0.203	500	600	625	0	0	1	-180	180;
	61	71	0.011	0.087	0.182	500	600	625	0	0	1	-180	180;
	62	64	0.005	0.059	0.082	500	600	625	0	0	1	-180	180;
	63	64	0.002	0.017	0.036	500	600	625	0	0	1	-180	180;
	63	69	0.006	0.049	0.103	500	600	625	0	0	1	-180	180;
	63	69	0.006	0.049	0.103	500	600	625	0	0	1	-180	180;
	63	72	0.007	0.052	0.109	500	600	625	0	0	1	-180	180;
	64	65	0.003	0.026	0.055	500	600	625	0	0	1	-180	180;
	64	67	0.003	0.023	0.049	500	600	625	0	0	1	-180	180;
	65	66	0.002	0.014	0.03	500	600	625	0	0	1	-180	180;
	65	70	0.014	0.105	0.221	500	600	625	0	0	1	-180	180;
	66	69	0.003	0.026	0.055	500	600	625	0	0	1	-180	180;
	66	69	0.003	0.026	0.055	500	600	625	0	0	1	-180	180;
	67	68	0.005	0.04	0.083	500	600	625	0	0	1	-180	180;
	67	68	0.005	0.04	0.083	500	600	625	0	0	1	-180	180;
	68	71	0.003	0.022	0.046	500	600	625	0	0	1	-180	180;
	68	71	0.003	0.022	0.046	500	600	625	0	0	1	-180	180;
	69	70	0.009	0.068	0.142	500	600	625	0	0	1	-180	180;
	71	73	0	0.009	0	722	893	893	1	0	1	-180	180;
];													

%%-----  OPF Data  -----%%																						
%% area data																						
%	area	refbus																				
mpc.areas = [																						
	1	101;																				
	2	201;																				
	3	301;																				
];																						
																						
%% bus names																						
mpc.bus_name = {																						
	'ABEL';																					
	'ADAMS';																					
	'ADLER';																					
	'AGRICOLA';																					
	'AIKEN';																					
	'ALBER';																					
	'ALDER';																					
	'ALGER';																					
	'ALI';																					
	'ALLEN';																					
	'ANNA';																					
	'ARCHER';																					
	'ARNE';																					
	'ARNOLD';																					
	'ARTHUR';																					
	'ASSER';																					
	'ASTON';																					
	'ASTOR';																					
	'ATTAR';																					
	'ATTILA';																					
	'ATTLEE';																					
	'AUBREY';																					
	'AUSTEN';																					
	'AVERY';																					
	'BACH';																					
	'BACON';																					
	'BAFFIN';																					
	'BAILEY';																					
	'BAIN';																					
	'BAJER';																					
	'BAKER';																					
	'BALCH';																					
	'BALZAC';																					
	'BANKS';																					
	'BARDEEN';																					
	'BARKLA';																					
	'BARLOW';																					
	'BARRY';																					
	'BARTON';																					
	'BASOV';																					
	'BATES';																					
	'BAYLE';																					
	'BEDE';																					
	'BEETHOVEN';																					
	'BEHRING';																					
	'BELL';																					
	'BLOCH';																					
	'BORDET';																					
	'CABELL';																					
	'CABOT';																					
	'CAESAR';																					
	'CAINE';																					
	'CALVIN';																					
	'CAMUS';																					
	'CAREW';																					
	'CARREL';																					
	'CARTER';																					
	'CARUSO';																					
	'CARY';																					
	'CAXTON';																					
	'CECIL';																					
	'CHAIN';																					
	'CHASE';																					
	'CHIFA';																					
	'CHUHSI';																					
	'CLARK';																					
	'CLAY';																					
	'CLIVE';																					
	'COBB';																					
	'COLE';																					
	'COMTE';																					
	'CURIE';																					
	'CURTISS';																					
};																						
																						
%%-----  DC Line Data  -----%%																						
%	fbus	tbus	status	Pf	Pt	Qf	Qt	Vf	Vt	Pmin	Pmax	QminF	QmaxF	QminT	QmaxT	loss0	loss1					
mpc.dcline = [																						
	13	64	1	0	0	0	0	1	1	-100	100	-Inf	Inf	-Inf	Inf	0	0;					
];																																																															
end